@<TRIPOS>MOLECULE
1EBY_LIG
88 93 1 0 0 
SMALL
USER_CHARGES


@<TRIPOS>ATOM
  1 C1       9.8440    24.2070     2.2410 C.ar  1 LIG  -0.1435 
  2 C2       9.2310    25.4050     1.7950 C.ar  1 LIG  -0.1500 
  3 H1       9.8344    26.1908     1.3650 H     1 LIG   0.1500 
  4 C3       7.8250    25.5750     1.9120 C.ar  1 LIG  -0.1500 
  5 H2       7.3618    26.4887     1.5698 H     1 LIG   0.1500 
  6 C4       7.0260    24.5420     2.4800 C.ar  1 LIG  -0.1500 
  7 H3       5.9576    24.6717     2.5697 H     1 LIG   0.1500 
  8 C5       7.6380    23.3390     2.9290 C.ar  1 LIG  -0.1500 
  9 H4       7.0347    22.5536     3.3599 H     1 LIG   0.1500 
 10 C6       9.0430    23.1720     2.8100 C.ar  1 LIG  -0.1500 
 11 H5       9.5071    22.2585     3.1513 H     1 LIG   0.1500 
 12 C7      16.6170    22.1670     8.8460 C.ar  1 LIG  -0.1435 
 13 C8      15.8970    21.1820     9.5900 C.ar  1 LIG  -0.1500 
 14 H6      14.8401    21.3110     9.7711 H     1 LIG   0.1500 
 15 C9      16.5680    20.0300    10.0940 C.ar  1 LIG  -0.1500 
 16 H7      16.0209    19.2883    10.6570 H     1 LIG   0.1500 
 17 C10     17.9600    19.8590     9.8540 C.ar  1 LIG  -0.1500 
 18 H8      18.4699    18.9857    10.2332 H     1 LIG   0.1500 
 19 C11     18.6810    20.8390     9.1140 C.ar  1 LIG  -0.1500 
 20 H9      19.7381    20.7094     8.9346 H     1 LIG   0.1500 
 21 C12     18.0100    21.9900     8.6100 C.ar  1 LIG  -0.1500 
 22 H10     18.5593    22.7304     8.0474 H     1 LIG   0.1500 
 23 C13     15.8900    23.4020     8.2880 C.3   1 LIG   0.4235 
 24 H11     16.6219    24.0149     7.7620 H     1 LIG   0.0000 
 25 H12     15.4840    23.9631     9.1297 H     1 LIG   0.0000 
 26 O1      14.7960    23.1160     7.3670 O.3   1 LIG  -0.5600 
 27 C14     15.1800    22.6850     6.0280 C.3   1 LIG   0.3410 
 28 H13     16.1233    23.1733     5.7833 H     1 LIG   0.0000 
 29 C15     14.0630    23.0590     5.0310 C.3   1 LIG   0.2800 
 30 H14     13.2014    22.4406     5.2824 H     1 LIG   0.0000 
 31 C16     13.5940    24.5130     5.1080 C.3   1 LIG   0.2800 
 32 H15     13.4177    24.8072     6.1427 H     1 LIG   0.0000 
 33 C17     12.2210    24.7320     4.3560 C.3   1 LIG   0.3410 
 34 H16     12.2599    25.7102     3.8766 H     1 LIG   0.0000 
 35 C18     11.0340    24.7260     5.3120 C.2   1 LIG   0.5690 
 36 O2      10.8180    23.7130     5.9610 O.2   1 LIG  -0.5700 
 37 N1      10.2610    25.8030     5.3600 N.am  1 LIG  -0.7301 
 38 H17     10.5626    26.5667     4.7719 H     1 LIG   0.3700 
 39 O3      12.0380    23.6650     3.3570 O.3   1 LIG  -0.5600 
 40 C19     11.3620    24.0330     2.1260 C.3   1 LIG   0.4235 
 41 H18     11.7840    24.9761     1.7787 H     1 LIG   0.0000 
 42 H19     11.5571    23.2543     1.3886 H     1 LIG   0.0000 
 43 O4      14.6400    25.2940     4.4910 O.3   1 LIG  -0.6800 
 44 H20     14.9602    25.9190     5.1456 H     1 LIG   0.4000 
 45 O5      14.5800    22.8360     3.6910 O.3   1 LIG  -0.6800 
 46 H21     14.5222    23.6679     3.2154 H     1 LIG   0.4000 
 47 C20     15.3410    21.1990     5.9620 C.2   1 LIG   0.5690 
 48 O6      14.3540    20.5160     6.2110 O.2   1 LIG  -0.5700 
 49 N2      16.5050    20.7010     5.5790 N.am  1 LIG  -0.7301 
 50 H22     17.2387    21.3759     5.4169 H     1 LIG   0.3700 
 51 C21     16.8700    19.3000     5.3590 C.3   1 LIG   0.4436 
 52 H23     16.1730    18.8828     6.0858 H     1 LIG   0.0000 
 53 C22     16.7550    18.9200     3.8830 C.ar  1 LIG  -0.1435 
 54 C23     17.6770    17.9100     3.5290 C.ar  1 LIG  -0.1435 
 55 C24     15.8750    19.4460     2.8930 C.ar  1 LIG  -0.1500 
 56 H24     15.1657    20.2186     3.1507 H     1 LIG   0.1500 
 57 C25     15.9380    18.9450     1.5610 C.ar  1 LIG  -0.1500 
 58 H25     15.2758    19.3387     0.8041 H     1 LIG   0.1500 
 59 C26     16.8750    17.9240     1.2270 C.ar  1 LIG  -0.1500 
 60 H26     16.9160    17.5472     0.2157 H     1 LIG   0.1500 
 61 C27     18.2830    18.7480     5.6730 C.3   1 LIG   0.2800 
 62 H27     18.4063    18.4447     6.7127 H     1 LIG   0.0000 
 63 O7      19.2290    19.7990     5.3760 O.3   1 LIG  -0.6800 
 64 H28     20.1098    19.4470     5.5239 H     1 LIG   0.4000 
 65 C28     17.7580    17.3950     2.2120 C.ar  1 LIG  -0.1500 
 66 H29     18.4697    16.6224     1.9613 H     1 LIG   0.1500 
 67 C29     18.4980    17.5180     4.7450 C.3   1 LIG   0.1435 
 68 H30     19.5502    17.3899     4.4908 H     1 LIG   0.0000 
 69 H31     18.1208    16.6033     5.2023 H     1 LIG   0.0000 
 70 C30      9.0290    26.0670     6.1350 C.3   1 LIG   0.4436 
 71 H32      8.6901    25.0310     6.1314 H     1 LIG   0.0000 
 72 C31      9.2990    26.7620     7.4770 C.ar  1 LIG  -0.1435 
 73 C32      8.1960    27.5630     7.8780 C.ar  1 LIG  -0.1435 
 74 C33     10.4560    26.7020     8.3060 C.ar  1 LIG  -0.1500 
 75 H33     11.3016    26.0970     8.0139 H     1 LIG   0.1500 
 76 C34     10.4930    27.4460     9.5260 C.ar  1 LIG  -0.1500 
 77 H34     11.3701    27.4027    10.1547 H     1 LIG   0.1500 
 78 C35      9.3790    28.2450     9.9180 C.ar  1 LIG  -0.1500 
 79 H35      9.4165    28.8021    10.8424 H     1 LIG   0.1500 
 80 C36      7.9050    26.9920     5.5960 C.3   1 LIG   0.2800 
 81 H36      7.2400    26.4948     4.8899 H     1 LIG   0.0000 
 82 O8       8.5420    28.1100     4.9260 O.3   1 LIG  -0.6800 
 83 H37      7.8488    28.7062     4.6334 H     1 LIG   0.4000 
 84 C37      8.2070    28.3130     9.0900 C.ar  1 LIG  -0.1500 
 85 H38      7.3581    28.9155     9.3778 H     1 LIG   0.1500 
 86 C38      7.0940    27.4690     6.8390 C.3   1 LIG   0.1435 
 87 H39      6.6239    28.4367     6.6641 H     1 LIG   0.0000 
 88 H40      6.3338    26.7422     7.1251 H     1 LIG   0.0000 
@<TRIPOS>BOND
  1   1   2  ar  
  2   1  10  ar  
  3   1  40  1   
  4   2   3  1   
  5   2   4  ar  
  6   4   5  1   
  7   4   6  ar  
  8   6   7  1   
  9   6   8  ar  
 10   8   9  1   
 11   8  10  ar  
 12  10  11  1   
 13  12  13  ar  
 14  12  21  ar  
 15  12  23  1   
 16  13  14  1   
 17  13  15  ar  
 18  15  16  1   
 19  15  17  ar  
 20  17  18  1   
 21  17  19  ar  
 22  19  20  1   
 23  19  21  ar  
 24  21  22  1   
 25  23  24  1   
 26  23  25  1   
 27  23  26  1   
 28  26  27  1   
 29  27  28  1   
 30  27  29  1   
 31  27  47  1   
 32  29  30  1   
 33  29  31  1   
 34  29  45  1   
 35  31  32  1   
 36  31  33  1   
 37  31  43  1   
 38  33  34  1   
 39  33  35  1   
 40  33  39  1   
 41  35  36  2   
 42  35  37  am  
 43  37  38  1   
 44  37  70  1   
 45  39  40  1   
 46  40  41  1   
 47  40  42  1   
 48  43  44  1   
 49  45  46  1   
 50  47  48  2   
 51  47  49  am  
 52  49  50  1   
 53  49  51  1   
 54  51  52  1   
 55  51  53  1   
 56  51  61  1   
 57  53  54  ar  
 58  53  55  ar  
 59  54  65  ar  
 60  54  67  1   
 61  55  56  1   
 62  55  57  ar  
 63  57  58  1   
 64  57  59  ar  
 65  59  60  1   
 66  59  65  ar  
 67  61  62  1   
 68  61  63  1   
 69  61  67  1   
 70  63  64  1   
 71  65  66  1   
 72  67  68  1   
 73  67  69  1   
 74  70  71  1   
 75  70  72  1   
 76  70  80  1   
 77  72  73  ar  
 78  72  74  ar  
 79  73  84  ar  
 80  73  86  1   
 81  74  75  1   
 82  74  76  ar  
 83  76  77  1   
 84  76  78  ar  
 85  78  79  1   
 86  78  84  ar  
 87  80  81  1   
 88  80  82  1   
 89  80  86  1   
 90  82  83  1   
 91  84  85  1   
 92  86  87  1   
 93  86  88  1   
@<TRIPOS>SUBSTRUCTURE
  1 LIG  29 GROUP 4 **** **** 0
