@<TRIPOS>MOLECULE
LIG
   88    93     1     0     0
SMALL
bcc


@<TRIPOS>ATOM
      1 C1           9.8440    24.2070     2.2410 ca         1 LIG      -0.138300
      2 C2           9.2310    25.4050     1.7950 ca         1 LIG      -0.104000
      3 H1           9.8340    26.1910     1.3650 ha         1 LIG       0.139750
      4 C3           7.8250    25.5750     1.9120 ca         1 LIG      -0.135500
      5 H2           7.3620    26.4890     1.5700 ha         1 LIG       0.133000
      6 C4           7.0260    24.5420     2.4800 ca         1 LIG      -0.131000
      7 H3           5.9580    24.6720     2.5700 ha         1 LIG       0.129000
      8 C5           7.6380    23.3390     2.9290 ca         1 LIG      -0.135500
      9 H4           7.0350    22.5540     3.3600 ha         1 LIG       0.133000
     10 C6           9.0430    23.1720     2.8100 ca         1 LIG      -0.104000
     11 H5           9.5070    22.2590     3.1510 ha         1 LIG       0.139750
     12 C7          16.6170    22.1670     8.8460 ca         1 LIG      -0.138300
     13 C8          15.8970    21.1820     9.5900 ca         1 LIG      -0.104000
     14 H6          14.8400    21.3110     9.7710 ha         1 LIG       0.139750
     15 C9          16.5680    20.0300    10.0940 ca         1 LIG      -0.135500
     16 H7          16.0210    19.2880    10.6570 ha         1 LIG       0.133000
     17 C10         17.9600    19.8590     9.8540 ca         1 LIG      -0.131000
     18 H8          18.4700    18.9860    10.2330 ha         1 LIG       0.129000
     19 C11         18.6810    20.8390     9.1140 ca         1 LIG      -0.135500
     20 H9          19.7380    20.7090     8.9350 ha         1 LIG       0.133000
     21 C12         18.0100    21.9900     8.6100 ca         1 LIG      -0.104000
     22 H10         18.5590    22.7300     8.0470 ha         1 LIG       0.139750
     23 C13         15.8900    23.4020     8.2880 c3         1 LIG       0.183200
     24 H11         16.6220    24.0150     7.7620 h1         1 LIG       0.054200
     25 H12         15.4840    23.9630     9.1300 h1         1 LIG       0.054200
     26 O1          14.7960    23.1160     7.3670 os         1 LIG      -0.399100
     27 C14         15.1800    22.6850     6.0280 c3         1 LIG       0.061100
     28 H13         16.1230    23.1730     5.7830 h1         1 LIG       0.047200
     29 C15         14.0630    23.0590     5.0310 c3         1 LIG       0.140100
     30 H14         13.2010    22.4410     5.2820 h1         1 LIG       0.100700
     31 C16         13.5940    24.5130     5.1080 c3         1 LIG       0.140100
     32 H15         13.4180    24.8070     6.1430 h1         1 LIG       0.100700
     33 C17         12.2210    24.7320     4.3560 c3         1 LIG       0.061100
     34 H16         12.2600    25.7100     3.8770 h1         1 LIG       0.047200
     35 C18         11.0340    24.7260     5.3120 c          1 LIG       0.651600
     36 O2          10.8180    23.7130     5.9610 o          1 LIG      -0.592100
     37 N1          10.2610    25.8030     5.3600 ns         1 LIG      -0.553900
     38 H17         10.5630    26.5670     4.7720 hn         1 LIG       0.306500
     39 O3          12.0380    23.6650     3.3570 os         1 LIG      -0.399100
     40 C19         11.3620    24.0330     2.1260 c3         1 LIG       0.183200
     41 H18         11.7840    24.9760     1.7790 h1         1 LIG       0.054200
     42 H19         11.5570    23.2540     1.3890 h1         1 LIG       0.054200
     43 O4          14.6400    25.2940     4.4910 oh         1 LIG      -0.606300
     44 H20         14.9600    25.9190     5.1460 ho         1 LIG       0.417500
     45 O5          14.5800    22.8360     3.6910 oh         1 LIG      -0.606300
     46 H21         14.5220    23.6680     3.2150 ho         1 LIG       0.417500
     47 C20         15.3410    21.1990     5.9620 c          1 LIG       0.651600
     48 O6          14.3540    20.5160     6.2110 o          1 LIG      -0.592100
     49 N2          16.5050    20.7010     5.5790 ns         1 LIG      -0.553900
     50 H22         17.2390    21.3760     5.4170 hn         1 LIG       0.306500
     51 C21         16.8700    19.3000     5.3590 c3         1 LIG       0.183000
     52 H23         16.1730    18.8830     6.0860 h1         1 LIG       0.096200
     53 C22         16.7550    18.9200     3.8830 ca         1 LIG      -0.099300
     54 C23         17.6770    17.9100     3.5290 ca         1 LIG      -0.088800
     55 C24         15.8750    19.4460     2.8930 ca         1 LIG      -0.089000
     56 H24         15.1660    20.2190     3.1510 ha         1 LIG       0.149500
     57 C25         15.9380    18.9450     1.5610 ca         1 LIG      -0.135000
     58 H25         15.2760    19.3390     0.8040 ha         1 LIG       0.134000
     59 C26         16.8750    17.9240     1.2270 ca         1 LIG      -0.126500
     60 H26         16.9160    17.5470     0.2160 ha         1 LIG       0.129500
     61 C27         18.2830    18.7480     5.6730 c3         1 LIG       0.136600
     62 H27         18.4060    18.4450     6.7130 h1         1 LIG       0.047700
     63 O7          19.2290    19.7990     5.3760 oh         1 LIG      -0.604800
     64 H28         20.1100    19.4470     5.5240 ho         1 LIG       0.401500
     65 C28         17.7580    17.3950     2.2120 ca         1 LIG      -0.121000
     66 H29         18.4700    16.6220     1.9610 ha         1 LIG       0.133500
     67 C29         18.4980    17.5180     4.7450 c3         1 LIG      -0.062600
     68 H30         19.5500    17.3900     4.4910 hc         1 LIG       0.061950
     69 H31         18.1210    16.6030     5.2020 hc         1 LIG       0.061950
     70 C30          9.0290    26.0670     6.1350 c3         1 LIG       0.183000
     71 H32          8.6900    25.0310     6.1310 h1         1 LIG       0.096200
     72 C31          9.2990    26.7620     7.4770 ca         1 LIG      -0.099300
     73 C32          8.1960    27.5630     7.8780 ca         1 LIG      -0.088800
     74 C33         10.4560    26.7020     8.3060 ca         1 LIG      -0.089000
     75 H33         11.3020    26.0970     8.0140 ha         1 LIG       0.149500
     76 C34         10.4930    27.4460     9.5260 ca         1 LIG      -0.135000
     77 H34         11.3700    27.4030    10.1550 ha         1 LIG       0.134000
     78 C35          9.3790    28.2450     9.9180 ca         1 LIG      -0.126500
     79 H35          9.4160    28.8020    10.8420 ha         1 LIG       0.129500
     80 C36          7.9050    26.9920     5.5960 c3         1 LIG       0.136600
     81 H36          7.2400    26.4950     4.8900 h1         1 LIG       0.047700
     82 O8           8.5420    28.1100     4.9260 oh         1 LIG      -0.604800
     83 H37          7.8490    28.7060     4.6330 ho         1 LIG       0.401500
     84 C37          8.2070    28.3130     9.0900 ca         1 LIG      -0.121000
     85 H38          7.3580    28.9160     9.3780 ha         1 LIG       0.133500
     86 C38          7.0940    27.4690     6.8390 c3         1 LIG      -0.062600
     87 H39          6.6240    28.4370     6.6640 hc         1 LIG       0.061950
     88 H40          6.3340    26.7420     7.1250 hc         1 LIG       0.061950
@<TRIPOS>BOND
     1     1     2 ar  
     2     1    10 ar  
     3     1    40 1   
     4     2     3 1   
     5     2     4 ar  
     6     4     5 1   
     7     4     6 ar  
     8     6     7 1   
     9     6     8 ar  
    10     8     9 1   
    11     8    10 ar  
    12    10    11 1   
    13    12    13 ar  
    14    12    21 ar  
    15    12    23 1   
    16    13    14 1   
    17    13    15 ar  
    18    15    16 1   
    19    15    17 ar  
    20    17    18 1   
    21    17    19 ar  
    22    19    20 1   
    23    19    21 ar  
    24    21    22 1   
    25    23    24 1   
    26    23    25 1   
    27    23    26 1   
    28    26    27 1   
    29    27    28 1   
    30    27    29 1   
    31    27    47 1   
    32    29    30 1   
    33    29    31 1   
    34    29    45 1   
    35    31    32 1   
    36    31    33 1   
    37    31    43 1   
    38    33    34 1   
    39    33    35 1   
    40    33    39 1   
    41    35    36 2   
    42    35    37 1   
    43    37    38 1   
    44    37    70 1   
    45    39    40 1   
    46    40    41 1   
    47    40    42 1   
    48    43    44 1   
    49    45    46 1   
    50    47    48 2   
    51    47    49 1   
    52    49    50 1   
    53    49    51 1   
    54    51    52 1   
    55    51    53 1   
    56    51    61 1   
    57    53    54 ar  
    58    53    55 ar  
    59    54    65 ar  
    60    54    67 1   
    61    55    56 1   
    62    55    57 ar  
    63    57    58 1   
    64    57    59 ar  
    65    59    60 1   
    66    59    65 ar  
    67    61    62 1   
    68    61    63 1   
    69    61    67 1   
    70    63    64 1   
    71    65    66 1   
    72    67    68 1   
    73    67    69 1   
    74    70    71 1   
    75    70    72 1   
    76    70    80 1   
    77    72    73 ar  
    78    72    74 ar  
    79    73    84 ar  
    80    73    86 1   
    81    74    75 1   
    82    74    76 ar  
    83    76    77 1   
    84    76    78 ar  
    85    78    79 1   
    86    78    84 ar  
    87    80    81 1   
    88    80    82 1   
    89    80    86 1   
    90    82    83 1   
    91    84    85 1   
    92    86    87 1   
    93    86    88 1   
@<TRIPOS>SUBSTRUCTURE
     1 LIG         1 TEMP              0 ****  ****    0 ROOT
